[globalOptions]

# Set the pcrglobwb output directory in an absolute path.
#~ outputDir = /scratch/shared/edwin/pcrglobwb_gmglob/05min/rhine_meuse_example_from_1981_test/
outputDir    = C:\edwin\tmp\test_gmglob\


# Set the input directory map in an absolute path. 
#~ inputDir = /projects/0/dfguu/data/hydroworld/pcrglobwb2_input_release/version_2019_11_beta_extended/pcrglobwb2_input/
#~ inputDir = /scratch-shared/edwin/data/pcrglobwb_gmglob_input/develop/
inputDir    = c:\edwin\data\pcrglobwb_gmglob_input\develop\


# Map of clone (must be provided in PCRaster maps)
# - Spatial resolution and coverage are based on this map:
cloneMap    = rhine_meuse_05min/cloneMaps/RhineMeuse05min.clone.map

# The area/landmask of interest:
# If None, area/landmask is limited for cells with ldd value. 
landmask    = None


# netcdf attributes for output files:
institution = Department of Physical Geography, Utrecht University
title       = PCR-GLOBWB-MODFLOW offline coupling
description = by Edwin H. Sutanudjaja (contact: e.h.sutanudjaja@uu.nl) 


startTime = 1981-01-01
endTime   = 2010-12-31
# Format: YYYY-MM-DD ; The model runs on daily time step.

modflowOfflineCoupling = True

#~ # temporary modflow folder (optional):
#~ tmp_modflow_dir = /dev/shm/edwin/pcrglobwb_modflow/

[groundwaterOptions]

debugWaterBalance = True

# basic groundwater properties
groundwaterPropertiesNC = rhine_meuse_05min/groundwater/properties/groundwaterProperties5ArcMin.nc
# The file will contain specificYield (m3.m-3), kSatAquifer, recessionCoeff (day-1)

# - minimum value for groundwater recession coefficient (day-1) 
minRecessionCoeff = 1.0e-4

# river bed properties - optional
# - river bed conductivity (m.day-1) ; the default value is taken from kSatAquifer
riverBedConductivity = Default
# - river bed thickness (m) ; the default value is 0.1 m
riverBedThickness    = 0.1
# - minimum river bed resistance (day) ; the default value is 1 day
minimumBedResistance = 1.0

# total groundwater thickness (m)
estimateOfTotalGroundwaterThickness    = rhine_meuse_05min/groundwater/aquifer_thickness_estimate/thickness_05min.nc
# - TODO: Replace this with SoilGrids

# minimum and maximum total groundwater thickness 
minimumTotalGroundwaterThickness       = 50.
maximumTotalGroundwaterThickness       = 1000.

# assumption for the minimum transmissivity value (unit: m2/day) that can be extracted (via capillary rise and/or groundwater abstraction) - optional
# - if None, abstraction and/or capillary rise can always occur everywhere and unlimited
minimumTransmissivityForProductiveAquifer = 50.
# - For a run with MODFLOW (especially an offline coupling run), abstraction can still occur for these cells. Yet, the abstraction will not be to the lowermost layer only, but it will be distribued to both layers based on transmissivities.


[modflowParameterOptions]

# using varying DELR and DELC in order to correct horizontal anisotrophy of lat/lon cells (experimental)
using_varying_DELR_DELC = True
estimate_of_cell_horizontal_size_in_meter    = others/estimate_cell_dimension/05min/horizontal_size_mean.map
estimate_of_cell_vertical_size_in_meter      = others/estimate_cell_dimension/05min/vertical_size.map

#~ # using constant and equal DELR and DELC in meter
#~ using_constant_equal_DELR_and_DELC_in_meter = True

# number of modflow layers:
number_of_layers = 2

# Total thickness of groundwater (from both layers) is defined in the section "groundwaterOptions".

# The default values for aquifer properties (i.e. conductivities and storage coefficients) are defined in the field "groundwaterPropertiesNC" of the section "groundwaterOptions". Yet, these default values can be overwritten by setting the following information. 

# confining layer (deklaag) properties (thickness in meter, conductivity in m/day, resistance in day) 
#
# - confining layer thickness
usePreDefinedConfiningLayer               = True
confiningLayerThickness                   = rhine_meuse_05min/groundwater/confining_layer_parameters/confining_layer_thickness_version_2016.nc
#
# - confining layer horizontal conductivity (m/day)
confiningLayerHorizontalConductivity      = Default
# * If Default (or not defined), the default values from the field of "groundwaterPropertiesNC" of the section "groundwaterOptions" will be used. 
#
# - confining layer vertical conductivity (m/day)
confiningLayerVerticalConductivity        = Default
# * If Default (or not defined), the default values from the field of "groundwaterPropertiesNC" of the section "groundwaterOptions" will be used. 
#~ confiningLayerVerticalConductivity     = 0.00847584
# * PS: 0.00847584 estimated from f.g. consolidated of DOI: 10.1029/2010GL045565
# - maximum confining layer conductivity
maximumConfiningLayerVerticalConductivity = 0.005
# * PS: 0.005 used in WRI groundwater risk runs
#
# - resistance (day) 
# * By default, the resistance (1/VCONT) between two layers equals to confiningLayerThickness (m) / confiningLayerVerticalConductivity (m.day-1)
# * Yet, we can limit this field with the following the maximum value (day):
maximumConfiningLayerResistance           = 100000.
# 
# - primary storage coefficient (dimensionless)
confiningLayerPrimaryStorageCoefficient   = Default

# aquifer layer properties
# 
# - aquifer layer horizontal conductivity (m/day)
aquiferLayerHorizontalConductivity        = Default
# * If Default (or not defined), the default values from the field of "groundwaterPropertiesNC" of the section "groundwaterOptions" will be used. 
# 
# - primary storage coefficient (dimensionless) for confined aquifer only
#~ aquiferLayerPrimaryStorageCoefficient  = Default
# * If Default (or not defined), the default specific yield values from the field of "groundwaterPropertiesNC" of the section "groundwaterOptions" will be used. 
aquiferLayerPrimaryStorageCoefficient     = 0.003
# * PS: 0.003 based on de Graaf et al., 2017
# * The aquiferLayerPrimaryStorageCoefficient value will be set to the confined aquifer cells only. Cells without confining layer have their aquiferLayerPrimaryStorageCoefficient values equal to the specific yield values from the field of "groundwaterPropertiesNC".
#
# - secondary storage coefficient (dimensionless)
aquiferLayerSecondaryStorageCoefficient    = None
#~ aquiferLayerSecondaryStorageCoefficient = Default
# If aquiferLayerSecondaryStorageCoefficient is defined (or not equal to None or False), we will use the layer type (LAYCON) 2. Note that for this layer type, storage coefficient values may alter from their primary to the secondary ones (and vice versa), but transmissivities constantly based on the layer thickness. 
# 
# - PS: The thickness of aquifer layer is totalGroundwaterThickness - confiningLayerThickness

# option to include/conceptualize aquitard, but only below the confining layer, that provides higher resistance
aquitardResistance = Default
# * If Default, the default value (day) is estimated by dividing half of (0.5) bottom layer thickness over kSatAquifer (defined in groundwaterPropertiesNC). Moreover, it is assumed that the extent of aquitard is the same as confining layer thickness (confiningLayerThickness > 0).
# # TODO (but not for land subsidence model runs): Provide a possibility to assign a map of aquitardResistance directly. 

# general rule for minimum and maximum values for transmissivities (unit: m/day)
minimumTransmissivity = 10.0
maximumTransmissivity = 100000.0

# elevation/topographical parameters, e.g. average DEM and minimum DEM within a cell
topographyNC = rhine_meuse_05min/landSurface/topography/topography_parameters_5_arcmin_october_2015.nc

# channel/routing parameters (these input values/files would be used to convert discharge to surface water elevation, based on Manning's equation) 
channelNC    = rhine_meuse_05min/routing/channel_properties/channel_parameters_5_arcmin_october_2015.nc
# - the manning coefficient used for converting discharge values to surface water elevation values
manningsN = 0.04
#
# - minimum channel gradient (m.m-1, optional) - this is recommended to avoid too high surface water level
minimumChannelGradient = 0.00005
# - minimum channel width (m, optional) - this is recommended, not only to avoid too high surface water level, but also to set minimum river bed conductance 
minimumChannelWidth    = 5.0 

# option to exclude river infiltration
minimumWidthOfRiversWithInfiltration = 10.0

# drainage direction map
lddMap      = rhine_meuse_05min/routing/ldd_and_cell_area/lddsound_05min.nc

# cell area (unit: m2)
cellAreaMap = rhine_meuse_05min/routing/ldd_and_cell_area/cellsize05min.correct.nc

# lakes and reservoir parameters
onlyNaturalWaterBodies = False
waterBodyInputNC       = rhine_meuse_05min/routing/surface_water_bodies/waterBodies5ArcMin.nc


# option to ignore negative capillary rise during MODFLOW simulation
ignoreCapRise = True


# some parameters for the PCG solver (optional)
#~ DAMP              = 1.00,0.75
DAMP                 = 0.75
#~ DAMP_steady_state = 0.75,0.60
DAMP_steady_state    = 0.60
# - for steady-state model, please do not use too many RCLOSE
RCLOSE = 1e4,1e5,1e9
HCLOSE = 0.001,0.01,0.1,0.2,0.5,1.0


[modflowTransientInputOptions]

# the following is None for an online coupling between PCR-GLOBWB and MODFLOW
#
# - global extent
dischargeInputNC               = example_output/pcrglobwb/rhine_meuse_05min_cropped_from_gmd_paper_output/rhine_meuse_discharge_monthAvg_output_1958-01-31_to_2015-12-31.nc
groundwaterRechargeInputNC     = example_output/pcrglobwb/rhine_meuse_05min_cropped_from_gmd_paper_output/rhine_meuse_gwRecharge_monthTot_output_1958-01-31_to_2015-12-31.nc
groundwaterAbstractionInputNC  = example_output/pcrglobwb/rhine_meuse_05min_cropped_from_gmd_paper_output/rhine_meuse_totalGroundwaterAbstraction_monthTot_output_1958-01-31_to_2015-12-31.nc
channelStorageInputNC          = example_output/pcrglobwb/rhine_meuse_05min_cropped_from_gmd_paper_output/rhine_meuse_channelStorage_monthAvg_output_1958-01-31_to_2015-12-31.nc
#

valuesRechargeAndAbstractionInMonthlyTotal = True

# initial conditions for groundwater head (unit: m)
groundwaterHeadLayer1Ini = example_output/modflow_offline/05min/rhine_meuse_created_on_2020-09-08/states/groundwaterHeadLayer1_1980-12-31.map
groundwaterHeadLayer2Ini = example_output/modflow_offline/05min/rhine_meuse_created_on_2020-09-08/states/groundwaterHeadLayer2_1980-12-31.map

usingPredefinedInitialHead = True
# - if False, the initial groundwater head(s) will be based on the steady state simulation using the input defined in modflowSteadyStateInputOptions 
# - if True , the following initial conditions of the groundwater head will be based on the steady state simulation using the input defined in modflowSteadyStateInputOptions 
# - Note: For the online coupling PCR-GLOBWB-MODFLOW, we have to first define the initial conditions of groundwater head (usingPredefinedInitialHead = True)


#~ #######################################################################################################################################################
#~ [modflowSteadyStateInputOptions]
#~ 
#~ # The following input maps used for the steady state run 
#~ # - average discharge (unit: m3/s)
#~ avgDischargeInputMap              = example_output/pcrglobwb/global_05min_naturalized/average_discharge_m3_per_second_1960_to_2010.map
#~ # - average groundwater recharge (unit: m/day)
#~ avgGroundwaterRechargeInputMap    = example_output/pcrglobwb/global_05min_naturalized/average_gwRecharge_m_per_day_1960_to_2010.map
#~ 
#~ # - average groundwater abstraction (unit: m/day)
#~ avgGroundwaterAbstractionInputMap = 0.0
#~ 
#~ # - average channel storage (unit: m3) - optional
#~ avgChannelStorageInputMap         = example_output/pcrglobwb/global_05min_naturalized/average_channelStorage_m3_1960_to_2010.map 
#~ 
#~ # initial estimate for groundwater head (unit: m)
#~ usingInitialHeadEstimate = False
#~ groundwaterHeadLayer1Estimate = None
#~ groundwaterHeadLayer2Estimate = None
#~ 
#~ # option to ignore negative capillary rise during a steady state simulation
#~ ignoreCapRiseSteadyState = True
#~ 
#~ # option to introduce extra spin-up years (using transient simulation with constant input with 365 * 10 day stress period)
#~ extraSpinUpYearsWith10YearStressPeriod = 7
#~ # - a global simulation takes more than 6 hour calculation time per 10 years (with semi-weekly time steps)
#~ 
#~ # option to introduce extra spin-up years (using transient simulation with constant input with 365 day stress period)
#~ extraSpinUpYearsWith365DayStressPeriod = 27
#~ # - a global simulation takes about 35 minute calculation time per year
#~ 
#~ # option to introduce extra spin-up years (using transient simulation with constant input with 30 day stress period)
#~ extraSpinUpYearsWith30DayStressPeriod  = 3
#~ # - a global simulation takes about 20 minute calculation time per month


[reportingForModflowOptions]

# output files from modflow calculation that will be written in the disk in netcdf files:
outMonthEndNC = groundwaterHead,groundwaterHeadLayer1,groundwaterDepthLayer1,groundwaterHeadLayer2,groundwaterDepthLayer2,relativeGroundwaterHead,groundwaterVolumeEstimate,accuGroundwaterVolumeEstimate,groundwaterThicknessEstimate
outAnnuaEndNC = None

#~ # netcdf format and zlib setup
#~ formatNetCDF = NETCDF4
#~ zlib = True

# At this moment, we cannot report the following. 
outDailyTotNC = None
outMonthTotNC = None
outMonthAvgNC = None
outAnnuaTotNC = None
outAnnuaAvgNC = None
outMonthMaxNC = None
outAnnuaMaxNC = None

# option to make/copy backup of modflow files
make_backup_of_modflow_files = True



#~ [oldReportingOptions]
#~ # used for debugging only
#~ 
#~ # for MODFLOW debugging
#~ outDailyTotNC = None
#~ outMonthTotNC = None
#~ outMonthAvgNC = None
#~ outMonthEndNC = gwAbstractionUsed,transmissivity_layer_1_landmask_only,transmissivity_layer_2_landmask_only,kSatAquifer,abstraction_layer_1,abstraction_layer_2,resistance_between_layers,specificYield,riverLeakageLayer1,riverLeakageLayer2,drainLayer1,drainLayer2,surface_water_elevation,surface_water_bed_elevation_used,bed_conductance_used,drain_conductance,drain_elevation_lowermost_layer,drain_elevation_uppermost_layer
#~ outAnnuaTotNC = None
#~ outAnnuaAvgNC = None
#~ outAnnuaEndNC = gwAbstractionUsed,transmissivity_layer_1_landmask_only,transmissivity_layer_2_landmask_only,kSatAquifer,abstraction_layer_1,abstraction_layer_2,resistance_between_layers,specificYield,riverLeakageLayer1,riverLeakageLayer2,drainLayer1,drainLayer2,surface_water_elevation,surface_water_bed_elevation_used,bed_conductance_used,drain_conductance,drain_elevation_lowermost_layer,drain_elevation_uppermost_layer


